mgs
msa
rwc
mfc
steven
pcf
sb
steven
caissem
